Version 4
SHEET 1 880 680
WIRE 560 -240 560 -304
WIRE 560 -128 560 -160
WIRE 560 -128 336 -128
WIRE 336 -112 336 -128
WIRE 336 -112 272 -112
WIRE 560 -112 560 -128
WIRE 208 -80 96 -80
WIRE 304 -80 272 -80
WIRE 352 -80 304 -80
WIRE 480 -80 432 -80
WIRE 336 -48 272 -48
WIRE 96 -16 96 -80
WIRE 336 0 336 -48
WIRE 480 0 480 -80
WIRE 560 0 560 -32
WIRE 560 0 480 0
WIRE 480 32 480 0
WIRE 512 128 336 128
WIRE 336 144 336 128
WIRE 336 144 272 144
WIRE 512 144 512 128
WIRE 528 144 512 144
WIRE 656 144 608 144
WIRE 208 176 96 176
WIRE 304 176 272 176
WIRE 352 176 304 176
WIRE 480 176 432 176
WIRE 656 192 656 144
WIRE 704 192 656 192
WIRE 832 192 784 192
WIRE 336 208 272 208
WIRE 480 208 480 176
WIRE 96 240 96 176
WIRE 832 240 832 192
WIRE 336 256 336 208
WIRE 528 256 336 256
WIRE 656 256 656 192
WIRE 656 256 608 256
FLAG 480 208 0
FLAG 832 240 0
FLAG 96 240 0
FLAG 656 144 +3V3
FLAG 304 176 +5V1
FLAG 480 32 0
FLAG 96 -16 0
FLAG 304 -80 +5V0
FLAG 560 -304 +BATT
SYMBOL USBLC6-2SC6 240 176 R0
SYMATTR InstName U1
SYMBOL res 624 128 R90
WINDOW 0 0 56 VBottom 2
WINDOW 3 32 56 VTop 2
SYMATTR InstName R1
SYMATTR Value 5.1k
SYMBOL res 624 240 R90
WINDOW 0 0 56 VBottom 2
WINDOW 3 32 56 VTop 2
SYMATTR InstName R2
SYMATTR Value 5.1k
SYMBOL voltage 688 192 R270
WINDOW 0 32 56 VTop 2
WINDOW 3 -32 56 VBottom 2
WINDOW 123 0 0 Left 0
WINDOW 39 0 0 Left 0
SYMATTR InstName V2
SYMATTR Value 3.3
SYMBOL USBLC6-2SC6 240 -80 R0
SYMATTR InstName U2
SYMBOL voltage 336 -80 R270
WINDOW 0 1 57 VTop 2
WINDOW 3 29 101 VBottom 2
WINDOW 123 0 0 Left 0
WINDOW 39 0 0 Left 0
SYMATTR InstName V3
SYMATTR Value 3.3
SYMBOL res 576 -144 R180
WINDOW 0 -49 68 Left 2
WINDOW 3 -83 36 Left 2
SYMATTR InstName R3
SYMATTR Value 8.16k
SYMBOL res 544 -128 R0
SYMATTR InstName R4
SYMATTR Value 475
TEXT 72 400 Left 2 !.op
